/*--------------------------------*- C++ -*----------------------------------*\
| =========                 |                                                 |
| \\      /  F ield         | OpenFOAM: The Open Source CFD Toolbox           |
|  \\    /   O peration     | Version:  1.7.0                                 |
|   \\  /    A nd           | Web:      www.OpenFOAM.com                      |
|    \\/     M anipulation  |                                                 |
\*---------------------------------------------------------------------------*/
FoamFile
{
    version     2.0;
    format      ascii;
    class       dictionary;
    location    "constant";
    object      transportProperties;
}
// * * * * * * * * * * * * * * * * * * * * * * * * * * * * * * * * * * * * * //

phases (L G);

L
{
    transportModel  Newtonian;
    nu              nu [ 0 2 -1 0 0 0 0 ] 1E-5;
    rho             rho [ 1 -3 0 0 0 0 0 ] 1000;
    k		        k [1 1 -3 -1 0 0 0] 0.1;
    cp				cp [ 0 2 -2 -1 0 0 0] 1000;
}

G
{
    transportModel  Newtonian;
    nu              nu [ 0 2 -1 0 0 0 0 ] 1E-5;
    rho             rho [ 1 -3 0 0 0 0 0 ] 1;
    k		     	k [1 1 -3 -1 0 0 0] 0.01;
    cp				cp [ 0 2 -2 -1 0 0 0] 1000;
}

sigma           sigma [ 1 0 -2 0 0 0 0 ] 0.01;

// ************************************************************************* //
