/*--------------------------------*- C++ -*----------------------------------*\
| =========                 |                                                 |
| \\      /  F ield         | OpenFOAM: The Open Source CFD Toolbox           |
|  \\    /   O peration     | Version:  1.7.0                                 |
|   \\  /    A nd           | Web:      www.OpenFOAM.com                      |
|    \\/     M anipulation  |                                                 |
\*---------------------------------------------------------------------------*/
FoamFile
{
    version     2.0;
    format      ascii;
    class       dictionary;
    object      blockMeshDict;
}
// * * * * * * * * * * * * * * * * * * * * * * * * * * * * * * * * * * * * * //

convertToMeters 1;

vertices        
(
	//Back face
	(0                   0                  0)      //00
	(0.05               0                  0)      //01
	(0.05           0.05                  0)      //02
	(0               0.05                  0)      //03
	//Front face
	(0                   0              0.0001)     //04
	(0.05               0              0.0001)     //05
	(0.05           0.05              0.0001)     //06
	(0               0.05              0.0001)     //07
);

blocks          
(
	hex ( 0  1  2  3  4  5  6  7) (50  50  1) simpleGrading (1 1 1)
);

edges           
(
);

patches         
(
	wall Walls
	(
		( 0  1  5  4)
		( 1  2  6  5)
		( 2  3  7  6)
		( 0  4  7  3)
	)

	empty topNbot 
	(
		( 0  3  2  1)
		( 4  5  6  7)
	)
);

mergePatchPairs 
();

// ************************************************************************* //
